A71EV2A-x0451_0A
     RDKit          3D

 14 15  0  0  0  0  0  0  0  0999 V2000
   11.0310   13.6610   22.1710 N   0  0  0  0  0  0  0  0  0  0  0  0
   12.0780   14.6430   21.9560 C   0  0  0  0  0  0  0  0  0  0  0  0
   10.5460   14.3020   24.2610 O   0  0  0  0  0  0  0  0  0  0  0  0
   10.4730   13.4770   23.3640 C   0  0  0  0  0  0  0  0  0  0  0  0
    8.6190   11.9810   24.4400 C   0  0  0  0  0  0  0  0  0  0  0  0
    9.7500   12.2060   23.5680 C   0  0  0  0  0  0  0  0  0  0  0  0
    9.9910   11.0180   22.9420 C   0  0  0  0  0  0  0  0  0  0  0  0
    9.0210    8.7090   22.8520 C   0  0  0  0  0  0  0  0  0  0  0  0
    8.2370   10.6440   24.2650 C   0  0  0  0  0  0  0  0  0  0  0  0
    7.1650   10.0920   24.9550 C   0  0  0  0  0  0  0  0  0  0  0  0
    6.4570   10.9070   25.8300 C   0  0  0  0  0  0  0  0  0  0  0  0
    6.8190   12.2340   26.0130 C   0  0  0  0  0  0  0  0  0  0  0  0
    7.8960   12.7760   25.3280 C   0  0  0  0  0  0  0  0  0  0  0  0
    9.0870   10.0780   23.3390 N   0  0  0  0  0  0  0  0  0  0  0  0
  2  1  1  0
  4  3  2  0
  4  1  1  0
  6  5  1  0
  6  4  1  0
  7  6  2  0
  9  5  2  0
 10  9  1  0
 11 10  2  0
 12 11  1  0
 13 12  2  0
 13  5  1  0
 14  9  1  0
 14  8  1  0
 14  7  1  0
M  END
